Circuit: * D:\Universidad\IOWLabs\TransIluminador\hardware\simulación\Modulo de corriente.asc

Direct Newton iteration for .op point succeeded.
Ignoring empty pin current: Ix(u1:1)
Ignoring empty pin current: Ix(u1:2)
Ignoring empty pin current: Ix(u2:1)
Ignoring empty pin current: Ix(u2:2)
Ignoring empty pin current: Ix(u1:1)
Ignoring empty pin current: Ix(u1:2)
Ignoring empty pin current: Ix(u2:1)
Ignoring empty pin current: Ix(u2:2)

Date: Fri Jan 12 10:20:57 2024
Total elapsed time: 0.333 seconds.

tnom = 27
temp = 27
method = modified trap
totiter = 2221
traniter = 2182
tranpoints = 1065
accept = 1061
rejected = 4
matrix size = 106
fillins = 2
solver = Normal
Thread vector: 12.1/4.6[7] 6.4/2.2[7] 1.9/3.0[1] 0.3/0.5[1]  2592/500
Matrix Compiler1: 5.20 KB object code size  1.7/1.1/[0.9]
Matrix Compiler2: 7.76 KB object code size  1.0/1.4/[0.8]

