Circuit: * D:\Universidad\IOWLabs\TransIluminador\hardware\simulación\Modulo de corriente.asc

Direct Newton iteration for .op point succeeded.
Ignoring empty pin current: Ix(u1:1)
Ignoring empty pin current: Ix(u1:2)
Ignoring empty pin current: Ix(u2:1)
Ignoring empty pin current: Ix(u2:2)
Ignoring empty pin current: Ix(u1:1)
Ignoring empty pin current: Ix(u1:2)
Ignoring empty pin current: Ix(u2:1)
Ignoring empty pin current: Ix(u2:2)

Date: Mon Dec 18 17:35:55 2023
Total elapsed time: 0.724 seconds.

tnom = 27
temp = 27
method = modified trap
totiter = 2257
traniter = 2218
tranpoints = 1079
accept = 1071
rejected = 8
matrix size = 106
fillins = 2
solver = Normal
Thread vector: 11.7/7.1[8] 6.5/4.2[8] 1.8/2.0[1] 0.3/1.7[1]  2592/500
Matrix Compiler1: 5.20 KB object code size  1.6/1.3/[0.9]
Matrix Compiler2: 7.76 KB object code size  1.1/1.4/[0.8]

