Circuit: * Z:\home\wac\Documents\repo\iowlabs\TransIluminador\hardware\simulación\Modulo de corriente.asc

Direct Newton iteration for .op point succeeded.
Ignoring empty pin current: Ix(u1:1)
Ignoring empty pin current: Ix(u1:2)
Ignoring empty pin current: Ix(u2:1)
Ignoring empty pin current: Ix(u2:2)
Ignoring empty pin current: Ix(u1:1)
Ignoring empty pin current: Ix(u1:2)
Ignoring empty pin current: Ix(u2:1)
Ignoring empty pin current: Ix(u2:2)

Date: Fri Dec 15 01:45:47 2023
Total elapsed time: 1.161 seconds.

tnom = 27
temp = 27
method = modified trap
totiter = 2228
traniter = 2189
tranpoints = 1067
accept = 1060
rejected = 7
matrix size = 106
fillins = 2
solver = Normal
Thread vector: 75.6/46.8[3] 12.9/24.9[1] 7.7/61.1[1] 1.0/59.5[1]  2592/500
Matrix Compiler1: 5.20 KB object code size  3.6/2.9/[1.9]
Matrix Compiler2: 7.76 KB object code size  2.7/3.9/[1.9]


