Circuit: * D:\Universidad\IOWLabs\Modulo de corriente.asc

Direct Newton iteration failed to find .op point.  (Use ".option noopiter" to skip.)
Starting Gmin stepping
Gmin = 10
Gmin = 1.07374
Gmin = 0.115292
Gmin = 0.0123794
Gmin = 0.00132923
Gmin = 0.000142725
Gmin = 1.5325e-005
Gmin = 1.6455e-006
Gmin = 1.76685e-007
Gmin = 1.89714e-008
Gmin = 2.03704e-009
Gmin = 2.18725e-010
Gmin = 2.34854e-011
Gmin = 2.52173e-012
Gmin = 2.70769e-013
Gmin = 0
Gmin stepping succeeded in finding the operating point.

Ignoring empty pin current: Ix(u1:1)
Ignoring empty pin current: Ix(u1:2)
Ignoring empty pin current: Ix(u2:1)
Ignoring empty pin current: Ix(u2:2)
Ignoring empty pin current: Ix(u1:1)
Ignoring empty pin current: Ix(u1:2)
Ignoring empty pin current: Ix(u2:1)
Ignoring empty pin current: Ix(u2:2)
Heightened Def Con from 0.705956 to 0.705956
Heightened Def Con from 0.714692 to 0.714692
Heightened Def Con from 0.715526 to 0.715526
Heightened Def Con from 0.716965 to 0.716965
Heightened Def Con from 0.722353 to 0.722353
Heightened Def Con from 0.723014 to 0.723014
Heightened Def Con from 0.732062 to 0.732062
Heightened Def Con from 0.750998 to 0.750998
Heightened Def Con from 0.761016 to 0.761016
Heightened Def Con from 0.790047 to 0.790047
Heightened Def Con from 0.793565 to 0.793565
Heightened Def Con from 0.801437 to 0.801437
Heightened Def Con from 0.803789 to 0.803789
Heightened Def Con from 0.815598 to 0.815598
Heightened Def Con from 0.818568 to 0.818568
Heightened Def Con from 0.823752 to 0.823752
Heightened Def Con from 0.826484 to 0.826484
Heightened Def Con from 0.834427 to 0.834427
Heightened Def Con from 0.864879 to 0.864879
Heightened Def Con from 0.866591 to 0.866591
Heightened Def Con from 0.874937 to 0.874937
Heightened Def Con from 0.908885 to 0.908885
Heightened Def Con from 0.940925 to 0.940925
Heightened Def Con from 0.944756 to 0.944756
Heightened Def Con from 0.952369 to 0.952369
Heightened Def Con from 0.95552 to 0.95552
Heightened Def Con from 0.965103 to 0.965103
Heightened Def Con from 0.980244 to 0.980244
Heightened Def Con from 0.982447 to 0.982447
Heightened Def Con from 0.98384 to 0.98384
Heightened Def Con from 1.00055 to 1.00055
Heightened Def Con from 1.01631 to 1.01631
Heightened Def Con from 1.02072 to 1.02072
Heightened Def Con from 1.03039 to 1.03039
Heightened Def Con from 1.06353 to 1.06353
Heightened Def Con from 1.07081 to 1.07081
Heightened Def Con from 1.07266 to 1.07266
Heightened Def Con from 1.08029 to 1.08029
Heightened Def Con from 1.08497 to 1.08497
Heightened Def Con from 1.11174 to 1.11174
Heightened Def Con from 1.12314 to 1.12314
Heightened Def Con from 1.12969 to 1.12969
Heightened Def Con from 1.13844 to 1.13844
Heightened Def Con from 1.14236 to 1.14236
Heightened Def Con from 1.15082 to 1.15082
Heightened Def Con from 1.15463 to 1.15463
Heightened Def Con from 1.16002 to 1.16002
Heightened Def Con from 1.16367 to 1.16367
Heightened Def Con from 1.16699 to 1.16699
