Circuit: * D:\Universidad\IOWLabs\TransIluminador\hardware\simulación\Modulo de corriente.asc

Direct Newton iteration for .op point succeeded.
Ignoring empty pin current: Ix(u1:1)
Ignoring empty pin current: Ix(u1:2)
Ignoring empty pin current: Ix(u2:1)
Ignoring empty pin current: Ix(u2:2)
Ignoring empty pin current: Ix(u1:1)
Ignoring empty pin current: Ix(u1:2)
Ignoring empty pin current: Ix(u2:1)
Ignoring empty pin current: Ix(u2:2)

Date: Mon Jan 15 10:51:40 2024
Total elapsed time: 0.398 seconds.

tnom = 27
temp = 27
method = modified trap
totiter = 2221
traniter = 2182
tranpoints = 1065
accept = 1061
rejected = 4
matrix size = 106
fillins = 2
solver = Normal
Thread vector: 22.4/13.5[8] 6.9/2.8[8] 2.0/10.6[1] 0.2/0.7[1]  2592/500
Matrix Compiler1: 5.20 KB object code size  1.6/1.1/[0.9]
Matrix Compiler2: 7.76 KB object code size  0.9/1.4/[0.8]

